Version 4
SHEET 1 1180 680
WIRE 768 -464 624 -464
WIRE 624 -448 624 -464
WIRE 768 -336 768 -464
WIRE 800 -336 768 -336
WIRE 704 -288 656 -288
WIRE 800 -288 800 -336
WIRE 800 -288 768 -288
WIRE 656 -208 656 -288
WIRE 656 -208 576 -208
WIRE 768 -208 768 -240
WIRE 1072 -208 768 -208
WIRE 768 -176 768 -208
WIRE 656 -128 656 -208
WIRE 704 -128 656 -128
WIRE 800 -128 768 -128
WIRE 800 -80 800 -128
WIRE 800 -80 768 -80
WIRE 768 -48 768 -80
FLAG 576 -208 IN
IOPIN 576 -208 In
FLAG 1072 -208 OUT
IOPIN 1072 -208 Out
FLAG 768 -48 0
FLAG 624 -368 0
SYMBOL MinedaLIB\\NMOS_MIN 704 -128 R0
SYMATTR InstName M1
SYMATTR Value2 l=0.35u w=1u ad=2..8p as=2.8p pd=5.5u ps=5.5u m=1
SYMBOL MinedaLIB\\PMOS_MIN 704 -288 R0
SYMATTR InstName M2
SYMATTR Value2 l=0.35u w=3u ad=5.6p as=5.6p pd=9u ps=9u m=1
SYMBOL voltage 624 -464 R0
WINDOW 123 0 0 Left 0
WINDOW 39 0 0 Left 0
SYMATTR InstName V1
SYMATTR Value 3.3
