Version 4
SHEET 1 880 680
WIRE 208 -80 64 -80
WIRE 64 -64 64 -80
WIRE 208 48 208 -80
WIRE 240 48 208 48
WIRE 144 96 96 96
WIRE 240 96 240 48
WIRE 240 96 208 96
WIRE 96 176 96 96
WIRE 96 176 16 176
WIRE 208 176 208 144
WIRE 512 176 208 176
WIRE 208 208 208 176
WIRE 96 256 96 176
WIRE 144 256 96 256
WIRE 240 256 208 256
WIRE 240 304 240 256
WIRE 240 304 208 304
WIRE 208 336 208 304
FLAG 16 176 IN
IOPIN 16 176 In
FLAG 512 176 OUT
IOPIN 512 176 Out
FLAG 208 336 0
FLAG 64 16 0
SYMBOL MinedaLIB\\NMOS_MIN 144 256 R0
SYMATTR InstName M1
SYMATTR Value2 l=0.35u w=0.7u ad=0.56p as=0.56p pd=3u ps=3u m=1
SYMBOL MinedaLIB\\PMOS_MIN 144 96 R0
SYMATTR InstName M2
SYMATTR Value2 l=0.35u w=1.4u ad=1.2p as=1.2p pd=4.6u ps=4.6u m=1
SYMBOL voltage 64 -80 R0
WINDOW 123 0 0 Left 0
WINDOW 39 0 0 Left 0
SYMATTR InstName V1
SYMATTR Value 3.3
