Version 4
SHEET 1 880 680
WIRE 32 -128 -112 -128
WIRE -112 -112 -112 -128
WIRE 32 0 32 -128
WIRE 64 0 32 0
WIRE -32 48 -80 48
WIRE 64 48 64 0
WIRE 64 48 32 48
WIRE -80 128 -80 48
WIRE -80 128 -160 128
WIRE 32 128 32 96
WIRE 336 128 32 128
WIRE 32 160 32 128
WIRE -80 208 -80 128
WIRE -32 208 -80 208
WIRE 64 208 32 208
WIRE 64 256 64 208
WIRE 64 256 32 256
WIRE 32 288 32 256
FLAG -160 128 IN
IOPIN -160 128 In
FLAG 336 128 OUT
IOPIN 336 128 Out
FLAG 32 288 0
FLAG -112 -32 0
SYMBOL MinedaLIB\\NMOS_MIN -32 208 R0
SYMATTR InstName M1
SYMATTR Value2 l=0.35u w=0.7u ad=0.56p as=0.56p pd=3u ps=3u m=18
SYMBOL MinedaLIB\\PMOS_MIN -32 48 R0
SYMATTR InstName M2
SYMATTR Value2 l=0.35u w=1.4u ad=1.2p as=1.2p pd=4.6u ps=4.6u m=18
SYMBOL voltage -112 -128 R0
WINDOW 123 0 0 Left 0
WINDOW 39 0 0 Left 0
SYMATTR InstName V1
SYMATTR Value 3.3
