Version 4
SHEET 1 880 680
WIRE 208 -16 64 -16
WIRE 64 0 64 -16
WIRE 208 112 208 -16
WIRE 240 112 208 112
WIRE 144 160 96 160
WIRE 240 160 240 112
WIRE 240 160 208 160
WIRE 96 240 96 160
WIRE 96 240 16 240
WIRE 208 240 208 208
WIRE 512 240 208 240
WIRE 208 272 208 240
WIRE 96 320 96 240
WIRE 144 320 96 320
WIRE 240 320 208 320
WIRE 240 368 240 320
WIRE 240 368 208 368
WIRE 208 400 208 368
FLAG 16 240 IN
IOPIN 16 240 In
FLAG 512 240 OUT
IOPIN 512 240 Out
FLAG 208 400 0
FLAG 64 80 0
SYMBOL MinedaLIB\\NMOS_MIN 144 320 R0
SYMATTR InstName M1
SYMATTR Value2 l=0.35u w=0.7u ad=0.56p as=0.56p pd=3u ps=3u m=3
SYMBOL MinedaLIB\\PMOS_MIN 144 160 R0
SYMATTR InstName M2
SYMATTR Value2 l=0.35u w=1.4u ad=1.2p as=1.2p pd=4.6u ps=4.6u m=3
SYMBOL voltage 64 -16 R0
WINDOW 123 0 0 Left 0
WINDOW 39 0 0 Left 0
SYMATTR InstName V1
SYMATTR Value 3.3
