Version 4
SHEET 1 1068 680
WIRE 656 -16 512 -16
WIRE 512 0 512 -16
WIRE 656 112 656 -16
WIRE 688 112 656 112
WIRE 592 160 544 160
WIRE 688 160 688 112
WIRE 688 160 656 160
WIRE 544 240 544 160
WIRE 544 240 464 240
WIRE 656 240 656 208
WIRE 960 240 656 240
WIRE 656 272 656 240
WIRE 544 320 544 240
WIRE 592 320 544 320
WIRE 688 320 656 320
WIRE 688 368 688 320
WIRE 688 368 656 368
WIRE 656 400 656 368
FLAG 464 240 IN
IOPIN 464 240 In
FLAG 960 240 OUT
IOPIN 960 240 Out
FLAG 656 400 0
FLAG 512 80 0
SYMBOL MinedaLIB\\NMOS_MIN 592 320 R0
SYMATTR InstName M1
SYMATTR Value2 l=0.35u w=1u
SYMBOL MinedaLIB\\PMOS_MIN 592 160 R0
SYMATTR InstName M3
SYMATTR Value2 l=0.35u w=3u
SYMBOL voltage 512 -16 R0
WINDOW 123 0 0 Left 0
WINDOW 39 0 0 Left 0
SYMATTR InstName V1
SYMATTR Value 3.3
