Version 4
SHEET 1 880 680
WIRE 304 -80 160 -80
WIRE 160 -64 160 -80
WIRE 304 48 304 -80
WIRE 336 48 304 48
WIRE 240 96 192 96
WIRE 336 96 336 48
WIRE 336 96 304 96
WIRE 192 176 192 96
WIRE 192 176 112 176
WIRE 304 176 304 144
WIRE 608 176 304 176
WIRE 304 208 304 176
WIRE 192 256 192 176
WIRE 240 256 192 256
WIRE 336 256 304 256
WIRE 336 304 336 256
WIRE 336 304 304 304
WIRE 304 336 304 304
FLAG 112 176 IN
IOPIN 112 176 In
FLAG 608 176 OUT
IOPIN 608 176 Out
FLAG 304 336 0
FLAG 160 16 0
SYMBOL MinedaLIB\\NMOS_MIN 240 256 R0
SYMATTR InstName M1
SYMATTR Value2 l=0.35u w=0.7u ad=0.56p as=0.56p pd=3u ps=3u m=9
SYMBOL MinedaLIB\\PMOS_MIN 240 96 R0
SYMATTR InstName M2
SYMATTR Value2 l=0.35u w=1.4u ad=1.2p as=1.2p pd=4.6u ps=4.6u m=9
SYMBOL voltage 160 -80 R0
WINDOW 123 0 0 Left 0
WINDOW 39 0 0 Left 0
SYMATTR InstName V1
SYMATTR Value 3.3
