Version 4
SHEET 1 2652 892
WIRE -496 -32 -688 -32
WIRE 96 0 32 0
WIRE 368 0 96 0
WIRE -592 32 -688 32
WIRE -496 32 -592 32
WIRE 736 32 624 32
WIRE 1120 32 912 32
WIRE 368 64 192 64
WIRE 1536 64 1376 64
WIRE 1120 96 1024 96
WIRE 1872 96 1792 96
WIRE 1952 96 1872 96
WIRE 2256 96 2128 96
WIRE 2528 96 2432 96
WIRE -592 160 -592 32
WIRE 368 160 -592 160
WIRE 1872 176 1872 96
WIRE 1872 176 1712 176
WIRE 192 192 192 64
WIRE 192 192 -688 192
WIRE 736 192 624 192
WIRE 1024 192 1024 96
WIRE 1024 192 912 192
WIRE 1536 192 1536 128
WIRE 1872 192 1536 192
WIRE 1712 208 1712 176
WIRE 1712 208 1536 208
WIRE 368 224 -688 224
WIRE 1536 256 1536 208
WIRE 1024 288 1024 192
WIRE 1120 288 1024 288
WIRE 1872 288 1872 192
WIRE 1872 288 1792 288
WIRE 1952 288 1872 288
WIRE 2256 288 2128 288
WIRE 2528 288 2432 288
WIRE 400 320 -688 320
WIRE 1536 320 1376 320
WIRE 736 352 592 352
WIRE 1120 352 912 352
WIRE 96 384 96 0
WIRE 112 384 96 384
FLAG 2528 96 OUT1
IOPIN 2528 96 Out
FLAG 2528 288 OUT2
IOPIN 2528 288 Out
FLAG -688 -32 RST
IOPIN -688 -32 In
FLAG -688 32 PD
IOPIN -688 32 In
FLAG -688 224 CLK
IOPIN -688 224 In
SYMBOL NAND2 448 64 R0
SYMATTR InstName X1
SYMBOL INVERTER 912 208 R0
SYMATTR InstName X3
SYMBOL NAND2 448 224 R0
SYMATTR InstName X4
SYMBOL NAND2 -416 32 R0
SYMATTR InstName X5
SYMBOL NAND2 1616 128 R0
SYMATTR InstName X6
SYMBOL NAND2 1616 320 R0
SYMATTR InstName X7
SYMBOL NAND2 1200 96 R0
SYMATTR InstName X8
SYMBOL NAND2 1200 352 R0
SYMATTR InstName X9
SYMBOL INVERTER 912 368 R0
SYMATTR InstName X10
SYMBOL INVERTER 2432 112 R0
SYMATTR InstName X11
SYMBOL INVERTER 2432 304 R0
SYMATTR InstName X12
SYMBOL INVERTER 2128 112 R0
SYMATTR InstName X13
SYMBOL INVERTER 2128 304 R0
SYMATTR InstName X14
SYMBOL INVERTER 288 400 R0
SYMATTR InstName X16
SYMBOL INVERTER 912 48 R0
SYMATTR InstName X17
SYMBOL INVERTER 32 16 R0
SYMATTR InstName X2
SYMBOL NOR2 592 368 R0
SYMATTR InstName X15
SYMBOL NAND2 448 64 R0
SYMATTR InstName X18
SYMBOL INVERTER 912 208 R0
SYMATTR InstName X19
SYMBOL NAND2 448 224 R0
SYMATTR InstName X20
SYMBOL NAND2 -416 32 R0
SYMATTR InstName X21
SYMBOL NAND2 1616 128 R0
SYMATTR InstName X22
SYMBOL NAND2 1616 320 R0
SYMATTR InstName X23
SYMBOL NAND2 1200 96 R0
SYMATTR InstName X24
SYMBOL NAND2 1200 352 R0
SYMATTR InstName X25
SYMBOL INVERTER 912 368 R0
SYMATTR InstName X26
SYMBOL INVERTER 2432 112 R0
SYMATTR InstName X27
SYMBOL INVERTER 2432 304 R0
SYMATTR InstName X28
SYMBOL INVERTER 2128 112 R0
SYMATTR InstName X29
SYMBOL INVERTER 2128 304 R0
SYMATTR InstName X30
SYMBOL INVERTER 288 400 R0
SYMATTR InstName X31
SYMBOL INVERTER 912 48 R0
SYMATTR InstName X32
SYMBOL INVERTER 32 16 R0
SYMATTR InstName X33
SYMBOL NOR2 592 368 R0
SYMATTR InstName X34
