Version 4
SHEET 1 1024 680
WIRE 128 -192 -288 -192
WIRE 480 -192 128 -192
WIRE 576 -192 480 -192
WIRE 480 -144 480 -192
WIRE -288 -96 -288 -112
WIRE 416 -96 -208 -96
WIRE 576 -96 576 -192
WIRE 576 -96 480 -96
WIRE 128 -32 128 -192
WIRE 224 -32 128 -32
WIRE 128 16 128 -32
WIRE 64 64 -48 64
WIRE 224 64 224 -32
WIRE 224 64 128 64
WIRE 128 144 128 112
WIRE 320 144 128 144
WIRE 480 144 480 -48
WIRE 480 144 320 144
WIRE 624 144 480 144
WIRE 320 176 320 144
WIRE -208 224 -208 -96
WIRE -208 224 -480 224
WIRE 256 224 -208 224
WIRE 384 224 320 224
WIRE 320 336 320 272
WIRE -48 384 -48 64
WIRE -48 384 -480 384
WIRE 256 384 -48 384
WIRE 384 384 384 224
WIRE 384 384 320 384
WIRE 320 448 320 432
WIRE 384 448 384 384
WIRE 384 448 320 448
WIRE 320 496 320 448
FLAG -480 224 IN1
IOPIN -480 224 In
FLAG -480 384 IN2
IOPIN -480 384 In
FLAG 624 144 OUT
IOPIN 624 144 Out
FLAG 320 496 0
FLAG -288 -96 0
SYMBOL MinedaLIB\\NMOS_MIN 256 224 R0
SYMATTR InstName M1
SYMATTR Value2 l=0.35u w=0.7u ad=0.56p as=0.56p pd=3u ps=3u m=1
SYMBOL MinedaLIB\\PMOS_MIN 64 64 R0
SYMATTR InstName M3
SYMATTR Value2 l=0.35u w=1.4u ad=1.2p as=1.2p pd=4.6u ps=4.6u m=1
SYMBOL voltage -288 -208 R0
WINDOW 123 0 0 Left 0
WINDOW 39 0 0 Left 0
SYMATTR InstName V1
SYMATTR Value 3.3
SYMBOL MinedaLIB\\PMOS_MIN 416 -96 R0
SYMATTR InstName M4
SYMATTR Value2 l=0.35u w=1.4u ad=1.2p as=1.2p pd=4.6u ps=4.6u m=1
SYMBOL MinedaLIB\\NMOS_MIN 256 384 R0
SYMATTR InstName M2
SYMATTR Value2 l=0.35u w=0.7u ad=0.56p as=0.56p pd=3u ps=3u m=1
