Version 4
SHEET 1 880 680
WIRE 192 -320 80 -320
WIRE 80 -304 80 -320
WIRE 192 -224 192 -320
WIRE 256 -224 192 -224
WIRE 80 -208 80 -224
WIRE 192 -208 192 -224
WIRE 128 -160 16 -160
WIRE 256 -160 256 -224
WIRE 256 -160 192 -160
WIRE 192 -64 192 -112
WIRE 128 -16 16 -16
WIRE 256 -16 256 -160
WIRE 256 -16 192 -16
WIRE 192 64 192 32
WIRE 192 64 96 64
WIRE 304 64 192 64
WIRE 528 64 304 64
WIRE 240 112 16 112
WIRE 352 112 304 112
WIRE 352 160 352 112
WIRE 352 160 304 160
WIRE 96 192 96 64
WIRE 32 240 16 240
WIRE 144 240 96 240
WIRE 144 288 144 240
WIRE 144 288 96 288
WIRE 192 288 144 288
WIRE 304 288 304 160
WIRE 304 288 192 288
WIRE 192 304 192 288
FLAG 16 112 IN2
IOPIN 16 112 In
FLAG 16 240 IN1
IOPIN 16 240 In
FLAG 16 -16 IN1
IOPIN 16 -16 In
FLAG 16 -160 IN2
IOPIN 16 -160 In
FLAG 192 304 0
FLAG 528 64 OUT
IOPIN 528 64 Out
FLAG 80 -208 0
SYMBOL MinedaLIB\\NMOS_MIN 240 112 R0
SYMATTR InstName MN2
SYMATTR Value2 l=0.35u w=0.7u ad=0.56p as=0.56p pd=3u ps=3u m=1
SYMBOL MinedaLIB\\PMOS_MIN 128 -160 R0
SYMATTR InstName MP2
SYMATTR Value2 l=0.35u w=1.4u ad=1.2p as=1.2p pd=4.6u ps=4.6u m=1
SYMBOL voltage 80 -320 R0
WINDOW 123 0 0 Left 0
WINDOW 39 0 0 Left 0
SYMATTR InstName V1
SYMATTR Value 3.3
SYMBOL MinedaLIB\\PMOS_MIN 128 -16 R0
SYMATTR InstName MP1
SYMATTR Value2 l=0.35u w=1.4u ad=1.2p as=1.2p pd=4.6u ps=4.6u m=1
SYMBOL MinedaLIB\\NMOS_MIN 32 240 R0
SYMATTR InstName MN1
SYMATTR Value2 l=0.35u w=0.7u ad=0.56p as=0.56p pd=3u ps=3u m=1
